<configuration>
    <input>
        <net-file value="highway_other.net.xml"/>
        <route-files value="convoy_2.rou_scene.xml"/>
    </input>
    <time>
        <begin value="0"/>
        <end value="800"/>
        <step-length value="0.025"/>
        <max-depart-delay value="10"/>
    </time>
</configuration>